Input Parameters:
   integrator                     = md
   tinit                          = 0
   dt                             = 0.002
   nsteps                         = 1000
   init-step                      = 0
   simulation-part                = 1
   comm-mode                      = Linear
   nstcomm                        = 50
   bd-fric                        = 0
   ld-seed                        = 3720587819
   emtol                          = 2000
   emstep                         = 0.01
   niter                          = 20
   fcstep                         = 0
   nstcgsteep                     = 1000
   nbfgscorr                      = 10
   rtpi                           = 0.05
   nstxout                        = 100000
   nstvout                        = 100000
   nstfout                        = 100000
   nstlog                         = 100000
   nstcalcenergy                  = 50
   nstenergy                      = 50
   nstxout-compressed             = 50
   compressed-x-precision         = 1000
   cutoff-scheme                  = Group
   nstlist                        = 10
   ns-type                        = Grid
   pbc                            = xyz
   periodic-molecules             = FALSE
   verlet-buffer-tolerance        = 0.005
   rlist                          = 1
   rlistlong                      = 1.4
   nstcalclr                      = 10
   coulombtype                    = Cut-off
   coulomb-modifier               = None
   rcoulomb-switch                = 0
   rcoulomb                       = 1.4
   epsilon-r                      = 1
   epsilon-rf                     = 1
   vdw-type                       = Cut-off
   vdw-modifier                   = None
   rvdw-switch                    = 0
   rvdw                           = 1.4
   DispCorr                       = No
   table-extension                = 1
   fourierspacing                 = 0.12
   fourier-nx                     = 0
   fourier-ny                     = 0
   fourier-nz                     = 0
   pme-order                      = 4
   ewald-rtol                     = 1e-05
   ewald-rtol-lj                  = 0.001
   lj-pme-comb-rule               = Geometric
   ewald-geometry                 = 0
   epsilon-surface                = 0
   implicit-solvent               = No
   gb-algorithm                   = Still
   nstgbradii                     = 1
   rgbradii                       = 2
   gb-epsilon-solvent             = 80
   gb-saltconc                    = 0
   gb-obc-alpha                   = 1
   gb-obc-beta                    = 0.8
   gb-obc-gamma                   = 4.85
   gb-dielectric-offset           = 0.009
   sa-algorithm                   = Ace-approximation
   sa-surface-tension             = 2.092
   tcoupl                         = V-rescale
   nsttcouple                     = 10
   nh-chain-length                = 0
   print-nose-hoover-chain-variables = FALSE
   pcoupl                         = Berendsen
   pcoupltype                     = Semiisotropic
   nstpcouple                     = 10
   tau-p                          = 1
   compressibility (3x3):
      compressibility[    0]={ 5.30000e-05,  0.00000e+00,  0.00000e+00}
      compressibility[    1]={ 0.00000e+00,  5.30000e-05,  0.00000e+00}
      compressibility[    2]={ 0.00000e+00,  0.00000e+00,  5.30000e-05}
   ref-p (3x3):
      ref-p[    0]={ 1.01325e+00,  0.00000e+00,  0.00000e+00}
      ref-p[    1]={ 0.00000e+00,  1.01325e+00,  0.00000e+00}
      ref-p[    2]={ 0.00000e+00,  0.00000e+00,  1.01325e+00}
   refcoord-scaling               = No
   posres-com (3):
      posres-com[0]= 0.00000e+00
      posres-com[1]= 0.00000e+00
      posres-com[2]= 0.00000e+00
   posres-comB (3):
      posres-comB[0]= 0.00000e+00
      posres-comB[1]= 0.00000e+00
      posres-comB[2]= 0.00000e+00
   QMMM                           = FALSE
   QMconstraints                  = 0
   QMMMscheme                     = 0
   MMChargeScaleFactor            = 1
qm-opts:
   ngQM                           = 0
   constraint-algorithm           = Lincs
   continuation                   = FALSE
   Shake-SOR                      = FALSE
   shake-tol                      = 0.0001
   lincs-order                    = 4
   lincs-iter                     = 1
   lincs-warnangle                = 30
   nwall                          = 0
   wall-type                      = 9-3
   wall-r-linpot                  = -1
   wall-atomtype[0]               = -1
   wall-atomtype[1]               = -1
   wall-density[0]                = 0
   wall-density[1]                = 0
   wall-ewald-zfac                = 3
   pull                           = no
   rotation                       = FALSE
   interactiveMD                  = FALSE
   disre                          = No
   disre-weighting                = Conservative
   disre-mixed                    = FALSE
   dr-fc                          = 1000
   dr-tau                         = 0
   nstdisreout                    = 100
   orire-fc                       = 0
   orire-tau                      = 0
   nstorireout                    = 100
   free-energy                    = no
   cos-acceleration               = 0
   deform (3x3):
      deform[    0]={ 0.00000e+00,  0.00000e+00,  0.00000e+00}
      deform[    1]={ 0.00000e+00,  0.00000e+00,  0.00000e+00}
      deform[    2]={ 0.00000e+00,  0.00000e+00,  0.00000e+00}
   simulated-tempering            = FALSE
   E-x:
      n = 0
   E-xt:
      n = 0
   E-y:
      n = 0
   E-yt:
      n = 0
   E-z:
      n = 0
   E-zt:
      n = 0
   swapcoords                     = no
   adress                         = FALSE
   userint1                       = 0
   userint2                       = 0
   userint3                       = 0
   userint4                       = 0
   userreal1                      = 0
   userreal2                      = 0
   userreal3                      = 0
   userreal4                      = 0
grpopts:
   nrdf:           0     53759.1      116974
   ref-t:         300         300         300
   tau-t:         0.1         0.1         0.1
annealing:          No          No          No
annealing-npoints:           0           0           0
   acc:	           0           0           0
   nfreeze:           Y           Y           Y           N           N           N
   energygrp-flags[  0]: 1 0 0
   energygrp-flags[  1]: 0 0 0
   energygrp-flags[  2]: 0 0 0
Using 1 MPI process

Detecting CPU SIMD instructions.
Present hardware specification:
Vendor: GenuineIntel
Brand:  Intel(R) Xeon(R) CPU E5-2660 v3 @ 2.60GHz
Family:  6  Model: 63  Stepping:  2
Features: aes apic avx avx2 clfsh cmov cx8 cx16 f16c fma htt lahf_lm mmx msr nonstop_tsc pcid pclmuldq pdcm pdpe1gb popcnt pse rdrnd rdtscp sse2 sse3 sse4.1 sse4.2 ssse3 tdt x2apic
SIMD instructions most likely to fit this hardware: AVX2_256
SIMD instructions selected at GROMACS compile time: AVX_256

Binary not matching hardware - you might be losing performance.
SIMD instructions most likely to fit this hardware: AVX2_256
SIMD instructions selected at GROMACS compile time: AVX_256

NOTE: This file uses the deprecated 'group' cutoff_scheme. This will be
removed in a future release when 'verlet' supports all interaction forms.

Table routines are used for coulomb: FALSE
Table routines are used for vdw:     FALSE
Cut-off's:   NS: 1   Coulomb: 1.4   LJ: 1.4
System total charge: 18.000
Generated table with 1200 data points for 1-4 COUL.
Tabscale = 500 points/nm
Generated table with 1200 data points for 1-4 LJ6.
Tabscale = 500 points/nm
Generated table with 1200 data points for 1-4 LJ12.
Tabscale = 500 points/nm

Enabling SPC-like water optimization for 18747 molecules.

Potential shift: LJ r^-12: 0.000e+00 r^-6: 0.000e+00, Coulomb -0e+00
Removing pbc first time

Initializing LINear Constraint Solver

The number of constraints is 25704

Center of mass motion removal mode is Linear
We have the following groups for center of mass motion removal:
  0:  rest

There are: 88229 Atoms
Max number of connections per atom is 32
Total number of connections is 449964
Max number of graph edges per atom is 4
Total number of graph edges is 126396

Constraining the starting coordinates (step 0)

Constraining the coordinates at t0-dt (step 0)
RMS relative constraint deviation after constraining: 9.17e-06
Initial temperature: 299.472 K

Started mdrun on rank 0 Wed Aug 29 10:08:48 2018
           Step           Time         Lambda
              0        0.00000        0.00000

   Energies (kJ/mol)
          Angle    Proper Dih. Ryckaert-Bell.  Improper Dih.          LJ-14
    4.26704e+04    1.57796e+04    1.36789e+04    3.62652e+03    1.74385e+04
     Coulomb-14        LJ (SR)        LJ (LR)   Coulomb (SR)   Coulomb (LR)
    4.27162e+04    7.93418e+04   -1.10961e+04   -1.87330e+06   -9.44327e+04
      Potential    Kinetic En.   Total Energy    Temperature Pressure (bar)
   -1.76358e+06    2.49985e+05   -1.51360e+06    3.52200e+02    3.31104e+03
    7.37483e-06

	<====  A V E R A G E S  ====>

	Statistics over 1001 steps using 21 frames

   Energies (kJ/mol)
          Angle    Proper Dih. Ryckaert-Bell.  Improper Dih.          LJ-14
    5.43503e+04    1.84059e+04    2.31340e+04    3.24787e+03    1.67716e+04
     Coulomb-14        LJ (SR)        LJ (LR)   Coulomb (SR)   Coulomb (LR)
    5.17164e+04    4.96331e+04   -1.05452e+04   -1.93981e+06   -9.25295e+04
      Potential    Kinetic En.   Total Energy    Temperature Pressure (bar)
   -1.82563e+06    2.56136e+05   -1.56949e+06    3.60866e+02    7.45079e+02
   Constr. rmsd
    0.00000e+00

          Box-X          Box-Y          Box-Z
    1.27241e+01    1.26030e+01    8.05018e+00

   Total Virial (kJ/mol)
    5.01277e+04   -2.62499e+00    1.67405e+03
    1.23264e+01    4.79442e+04   -1.07061e+03
    1.70645e+03   -1.05919e+03    7.21313e+04

   Pressure (bar)
    9.68799e+02    2.39573e+01   -3.58423e+01
    2.35844e+01    1.02258e+03    3.01437e+01
   -3.66843e+01    2.98370e+01    2.43855e+02

  Epot (kJ/mol)        Coul-SR          LJ-SR        Coul-LR          LJ-LR        Coul-14          LJ-14
Protein-Protein    0.00000e+00    0.00000e+00    0.00000e+00    0.00000e+00    0.00000e+00    0.00000e+00
Protein-SOL_K+_CL-   -1.08920e+04   -6.22216e-01   -2.36157e+03   -4.44004e+01    0.00000e+00    0.00000e+00
   Protein-rest   -8.09782e+03   -2.64882e+03    1.55975e+02   -4.86218e+02    0.00000e+00    0.00000e+00
SOL_K+_CL--SOL_K+_CL-   -1.27778e+06    1.54809e+05    1.66464e+03   -1.90556e+03    0.00000e+00    0.00000e+00
SOL_K+_CL--rest   -1.67476e+05   -4.64037e+03   -2.58081e+04   -2.00096e+03    0.00000e+00    0.00000e+00
      rest-rest   -4.75569e+05   -9.78859e+04   -6.61805e+04   -6.10805e+03    5.17164e+04    1.67716e+04

      T-Protein         T-POPC   T-SOL_K+_CL-
    0.00000e+00    3.32291e+02    3.73999e+02
